[General]
network = AHRPNetwork
sim-time-limit = 50s

**.R0.routerId = "R0"
**.R1.routerId = "R1"
**.R2.routerId = "R2"
**.R3.routerId = "R3"
**.R4.routerId = "R4"
**.R5.routerId = "R5"

# enable logging
**.scalar-recording = true
**.vector-recording = true